PowerFlow/caseMicroUpdated.m
function mpc = caseMicroUpdated
%CASE9    Power flow data for Lincoln Lab microgrid
%   Please see CASEFORMAT for details on the case file format.
%
%   Based on data from Joe H. Chow's book, p. 70.

%   MATPOWER
%   $Id: case9.m 2408 2014-10-22 20:41:33Z ray $

%% MATPOWER Case Format : Version 2
mpc.version = '2';

%%-----  Power Flow Data  -----%%
%% system MVA base
mpc.baseMVA = 4;

%% bus data
%	bus_i	type	Pd	Qd	Gs	Bs	area	Vm	Va	baseKV	zone	Vmax	Vmin
mpc.bus = [
1	1	0	0	0	0	1	1	0	13.8	1	1.2	0.98
2	1	1.186425	0.61481875	0	0	1	1	0	0.46	1	1.2	0.98
3	1	0	0	0	0	1	1	0	13.8	1	1.2	0.98
4	1	0	0	0	0	1	1	0	13.8	1	1.2	0.98
5	1	0	0	0	0	1	1	0	4.16	1	1.2	0.98
6	1	0	0	0	0	1	1	0	13.8	1	1.2	0.98
7	1	0	0	0	0	1	1	0	13.8	1	1.2	0.98
8	1	0	0	0	0	1	1	0	4.16	1	1.2	0.98
9	1	0	0	0	0	1	1	0	4.16	1	1.2	0.98
10	1	0	0	0	0	1	1	0	4.16	1	1.2	0.98
11	1	0.22	0.01	0	0	1	1	0	0.46	1	1.2	0.98
12	1	0.14	0.09	0	0	1	1	0	0.46	1	1.2	0.98
13	1	0.16	0.09	0	0	1	1	0	0.46	1	1.2	0.98
14	1	0.706425	0.63981875	0	0	1	1	0	0.46	1	1.2	0.98
15	1	2.5	1.2	0	0	1	1	0	0.46	1	1.2	0.98
16	1	0.09	0.042	0	0	1	1	0	0.46	1	1.2	0.98
17	1	0.14	0.01	0	0	1	1	0	0.208	1	1.2	0.98
18	1	0.28	0.1	0	0	1	1	0	0.208	1	1.2	0.98
19	1	0.78	0.42	0	0	1	1	0	0.208	1	1.2	0.98
20	1	0	0	0	0	1	1	0	2.4	1	1.2	0.98
21	1	-3.5	-0.01	0	0	1	1	0	2.4	1	1.2	0.98
22	3	0	0	0	0	1	1	0	13.8	1	1.2	0.98
23	2	0	0	0	0	1	1	0	0.46	1	1.2	0.98
];

%% generator data
%	bus	Pg	Qg	Qmax	Qmin	Vg	mBase	status	Pmax	Pmin	Pc1	Pc2	Qc1min	Qc1max	Qc2min	Qc2max	ramp_agc	ramp_10	ramp_30	ramp_q	apf
mpc.gen = [
22	0	0	4	-4	1	4	1	4	0	0	0	0	0	0	0	0	0	0	0	0
23	0.6	0	1	-1	1	4	1	1	0	0	0	0	0	0	0	0	0	0	0	0
];

%% branch data
%	fbus	tbus	r	x	b	rateA	rateB	rateC	ratio	angle	status	angmin	angmax
mpc.branch = [
1	2	0.0004	0.2671	0.0001	7	7	7	0	0	1	-360	360
1	3	0.0008	0.1182	0.000176	7	7	7	0	0	1	-360	360
1	4	0.0003	0.0447	0.000067	7	7	7	0	0	1	-360	360
3	5	0.001	0.264	0.000234	7	7	7	0	0	1	-360	360
3	11	0.02	3.196	0.004467	7	7	7	0	0	1	-360	360
4	6	0.0006	0.0894	0.000133	7	7	7	0	0	1	-360	360
4	7	0	0.0013	0.000002	7	7	7	0	0	1	-360	360
5	8	0.0001	0.0211	0.000031	7	7	7	0	0	1	-360	360
5	9	0.0001	0.0141	0.000021	7	7	7	0	0	1	-360	360
9	10	0.0002	0.0359	0.000053	7	7	7	0	0	1	-360	360
8	16	0.0098	1.8732	0.002196	7	7	7	0	0	1	-360	360
8	17	0.0472	7.4657	0.010534	7	7	7	0	0	1	-360	360
9	18	0.0472	7.2657	0.010534	7	7	7	0	0	1	-360	360
10	19	0.0469	7.2298	0.010481	7	7	7	0	0	1	-360	360
10	20	0.0011	0.269	0.000252	7	7	7	0	0	1	-360	360
6	13	0.0192	3.4144	0.004295	7	7	7	0	0	1	-360	360
6	14	0.0484	7.4511	0.01081	7	7	7	0	0	1	-360	360
7	15	0.0001	0.1227	0.000024	7	7	7	0	0	1	-360	360
8	21	0	0.1	0.000037	7	7	7	0	0	1	-360	360
4	12	0.0192	3.6762	0.004288	7	7	7	0	0	1	-360	360
7	22	0	0.0064	0.00001	7	7	7	0	0	1	-360	360
2	23	0.0192	2.8746	0.004286	7	7	7	0	0	1	-360	360
];

%%-----  OPF Data  -----%%
%% generator cost data
%	1	startup	shutdown	n	x1	y1	...	xn	yn
%	2	startup	shutdown	n	c(n-1)	...	c0
mpc.gencost = [
	2	1500	0	3	0.11	5	150;
	2	2000	0	3	0.085	1.2	600;
];

end 